
OS:Version,
  {86fe3cdf-f11e-4cb1-9744-a2d572cdecd6}, !- Handle
  3.3.0;                                  !- Version Identifier

OS:ScheduleTypeLimits,
  {1779f0fa-6f56-41a5-a25c-7080f4f941af}, !- Handle
  on_off,                                 !- Name
  0,                                      !- Lower Limit Value
  1,                                      !- Upper Limit Value
  discrete;                               !- Numeric Type

OS:ScheduleTypeLimits,
  {6ad8be73-e478-4c9d-9140-79fada195dc4}, !- Handle
  fractional,                             !- Name
  0,                                      !- Lower Limit Value
  1,                                      !- Upper Limit Value
  continuous;                             !- Numeric Type

OS:ScheduleTypeLimits,
  {8fa0284f-ae65-46b1-87cb-c103da502e01}, !- Handle
  temp_setpoint,                          !- Name
  0,                                      !- Lower Limit Value
  50,                                     !- Upper Limit Value
  continuous,                             !- Numeric Type
  temperature;                            !- Unit Type

OS:ScheduleTypeLimits,
  {4a0c0993-48da-4720-8344-eaeb0af4e1e6}, !- Handle
  activity_level,                         !- Name
  0,                                      !- Lower Limit Value
  600,                                    !- Upper Limit Value
  continuous,                             !- Numeric Type
  activitylevel;                          !- Unit Type

OS:ScheduleTypeLimits,
  {8dfecee0-b362-4e38-8a00-7bd53e521cfa}, !- Handle
  shw_temp,                               !- Name
  0,                                      !- Lower Limit Value
  100,                                    !- Upper Limit Value
  continuous,                             !- Numeric Type
  temperature;                            !- Unit Type

OS:ScheduleTypeLimits,
  {4a9f47a8-a8f3-4e5c-8dba-767c48055fdd}, !- Handle
  positive_number,                        !- Name
  0,                                      !- Lower Limit Value
  ,                                       !- Upper Limit Value
  continuous;                             !- Numeric Type

OS:ScheduleTypeLimits,
  {77bb6793-cc30-4fa4-b85e-77228b13e3e2}, !- Handle
  any_number;                             !- Name

OS:Schedule:Constant,
  {9cf707f7-f67e-4e73-a942-5392b2ccf62f}, !- Handle
  CBES Always Off Schedule,               !- Name
  {1779f0fa-6f56-41a5-a25c-7080f4f941af}, !- Schedule Type Limits Name
  0;                                      !- Value

OS:Schedule:Constant,
  {040aa1f5-5e0e-4d83-8bec-5b56750b3fb9}, !- Handle
  CBES Always On Schedule,                !- Name
  {1779f0fa-6f56-41a5-a25c-7080f4f941af}, !- Schedule Type Limits Name
  1;                                      !- Value

OS:SimulationControl,
  {56dce2a1-37e5-4383-981e-abc725afca0e}, !- Handle
  Yes,                                    !- Do Zone Sizing Calculation
  Yes,                                    !- Do System Sizing Calculation
  Yes,                                    !- Do Plant Sizing Calculation
  No,                                     !- Run Simulation for Sizing Periods
  Yes,                                    !- Run Simulation for Weather File Run Periods
  ,                                       !- Loads Convergence Tolerance Value {W}
  ,                                       !- Temperature Convergence Tolerance Value {deltaC}
  FullExterior,                           !- Solar Distribution
  50;                                     !- Maximum Number of Warmup Days

OS:Timestep,
  {6f36d1b4-cacb-4bc0-8df4-82e1eefb1ef7}, !- Handle
  6;                                      !- Number of Timesteps per Hour

OS:SizingPeriod:DesignDay,
  {91274156-7d85-4545-8de1-9a71dd6283e6}, !- Handle
  Climate Zone 6 Ann Htg 99.6% Condns DB, !- Name
  5.2,                                    !- Maximum Dry-Bulb Temperature {C}
  0,                                      !- Daily Dry-Bulb Temperature Range {deltaC}
  100965,                                 !- Barometric Pressure {Pa}
  1.1,                                    !- Wind Speed {m/s}
  300,                                    !- Wind Direction {deg}
  0,                                      !- Sky Clearness
  No,                                     !- Rain Indicator
  No,                                     !- Snow Indicator
  21,                                     !- Day of Month
  12,                                     !- Month
  WinterDesignDay,                        !- Day Type
  No,                                     !- Daylight Saving Time Indicator
  Wetbulb,                                !- Humidity Condition Type
  ,                                       !- Humidity Condition Day Schedule Name
  5.2,                                    !- Wetbulb or DewPoint at Maximum Dry-Bulb {C}
  ,                                       !- Humidity Ratio at Maximum Dry-Bulb {kgWater/kgDryAir}
  ,                                       !- Enthalpy at Maximum Dry-Bulb {J/kg}
  DefaultMultipliers,                     !- Dry-Bulb Temperature Range Modifier Type
  ,                                       !- Dry-Bulb Temperature Range Modifier Day Schedule Name
  ASHRAEClearSky;                         !- Solar Model Indicator

OS:SizingPeriod:DesignDay,
  {478560e3-473a-4efa-8d7a-ab209521bc6b}, !- Handle
  Climate Zone 6 Ann Clg .4% Condns WB=>MDB, !- Name
  28.4,                                   !- Maximum Dry-Bulb Temperature {C}
  9.4,                                    !- Daily Dry-Bulb Temperature Range {deltaC}
  100965,                                 !- Barometric Pressure {Pa}
  3.9,                                    !- Wind Speed {m/s}
  290,                                    !- Wind Direction {deg}
  0,                                      !- Sky Clearness
  No,                                     !- Rain Indicator
  No,                                     !- Snow Indicator
  21,                                     !- Day of Month
  8,                                      !- Month
  SummerDesignDay,                        !- Day Type
  No,                                     !- Daylight Saving Time Indicator
  Wetbulb,                                !- Humidity Condition Type
  ,                                       !- Humidity Condition Day Schedule Name
  22.2,                                   !- Wetbulb or DewPoint at Maximum Dry-Bulb {C}
  ,                                       !- Humidity Ratio at Maximum Dry-Bulb {kgWater/kgDryAir}
  ,                                       !- Enthalpy at Maximum Dry-Bulb {J/kg}
  DefaultMultipliers,                     !- Dry-Bulb Temperature Range Modifier Type
  ,                                       !- Dry-Bulb Temperature Range Modifier Day Schedule Name
  ASHRAETau,                              !- Solar Model Indicator
  ,                                       !- Beam Solar Day Schedule Name
  ,                                       !- Diffuse Solar Day Schedule Name
  0.361,                                  !- ASHRAE Clear Sky Optical Depth for Beam Irradiance {dimensionless}
  2.435;                                  !- ASHRAE Clear Sky Optical Depth for Diffuse Irradiance {dimensionless}

OS:Site,
  {78d875bd-1c8f-4699-b67a-6d0b60e69ebc}, !- Handle
  Climate Zone 6_CA_USA Design_Conditions, !- Name
  33.9,                                   !- Latitude {deg}
  -118.5,                                 !- Longitude {deg}
  -8,                                     !- Time Zone {hr}
  30,                                     !- Elevation {m}
  city;                                   !- Terrain

OS:Construction,
  {c9e6f9e4-c035-4baf-a648-0fecd82f97fe}, !- Handle
  ext wall Adiabatic Construction,        !- Name
  ,                                       !- Surface Rendering Name
  {249d8262-3132-4fb5-9cb2-9ff707973fee}; !- Layer 1

OS:Material,
  {249d8262-3132-4fb5-9cb2-9ff707973fee}, !- Handle
  Insulation 1m,                          !- Name
  Smooth,                                 !- Roughness
  1,                                      !- Thickness {m}
  0.023018771,                            !- Conductivity {W/m-K}
  16.01846337,                            !- Density {kg/m3}
  1130.436,                               !- Specific Heat {J/kg-K}
  0.9,                                    !- Thermal Absorptance
  0.7,                                    !- Solar Absorptance
  0.8;                                    !- Visible Absorptance

OS:Building,
  {39154738-2f95-4ade-9513-22c3e9052d07}, !- Handle
  Building 1,                             !- Name
  ,                                       !- Building Sector Type
  0,                                      !- North Axis {deg}
  ,                                       !- Nominal Floor to Floor Height {m}
  ,                                       !- Space Type Name
  ,                                       !- Default Construction Set Name
  ;                                       !- Default Schedule Set Name

OS:BuildingStory,
  {945f2c05-b6f8-43c6-ae6d-52b3c46940fd}, !- Handle
  S1 single_family_first_story,           !- Name
  0,                                      !- Nominal Z Coordinate {m}
  3.05,                                   !- Nominal Floor to Floor Height {m}
  ,                                       !- Default Construction Set Name
  ,                                       !- Default Schedule Set Name
  ;                                       !- Group Rendering Name

OS:Space,
  {233a06a0-4ea8-4797-a769-769b8eb769d0}, !- Handle
  S1 single_family_living core 1,         !- Name
  {92e49a1b-d618-48de-8ce4-5f484463d4d6}, !- Space Type Name
  {bc233fb7-deb1-4a11-a441-565bc1cc02d0}, !- Default Construction Set Name
  {4ddbe938-145e-4ab9-aa81-3cf04854cfeb}, !- Default Schedule Set Name
  ,                                       !- Direction of Relative North {deg}
  ,                                       !- X Origin {m}
  ,                                       !- Y Origin {m}
  ,                                       !- Z Origin {m}
  {945f2c05-b6f8-43c6-ae6d-52b3c46940fd}, !- Building Story Name
  {15f84a1e-6fcb-4543-a19d-2c1bd675de16}, !- Thermal Zone Name
  Yes;                                    !- Part of Total Floor Area

OS:ThermalZone,
  {15f84a1e-6fcb-4543-a19d-2c1bd675de16}, !- Handle
  S1 single_family_living core,           !- Name
  ,                                       !- Multiplier
  ,                                       !- Ceiling Height {m}
  ,                                       !- Volume {m3}
  ,                                       !- Floor Area {m2}
  ,                                       !- Zone Inside Convection Algorithm
  ,                                       !- Zone Outside Convection Algorithm
  ,                                       !- Zone Conditioning Equipment List Name
  {93d3d98e-a33c-4e3d-b06f-32fceb687aff}, !- Zone Air Inlet Port List
  {b274b794-83c3-4d3d-a678-c40a69a398f4}, !- Zone Air Exhaust Port List
  {caf5dec1-e320-4e8d-b3db-e40a92cce324}, !- Zone Air Node Name
  {833064b5-ae32-439f-80f1-6b005133d95a}, !- Zone Return Air Port List
  ,                                       !- Primary Daylighting Control Name
  ,                                       !- Fraction of Zone Controlled by Primary Daylighting Control
  ,                                       !- Secondary Daylighting Control Name
  ,                                       !- Fraction of Zone Controlled by Secondary Daylighting Control
  ,                                       !- Illuminance Map Name
  ,                                       !- Group Rendering Name
  {9d836088-7462-4e5a-9679-f0cc1f6f2f14}, !- Thermostat Name
  No;                                     !- Use Ideal Air Loads

OS:Node,
  {46d1fd2f-e7be-409d-b627-0a818b25a7c9}, !- Handle
  Node 1,                                 !- Name
  {caf5dec1-e320-4e8d-b3db-e40a92cce324}, !- Inlet Port
  ;                                       !- Outlet Port

OS:Connection,
  {caf5dec1-e320-4e8d-b3db-e40a92cce324}, !- Handle
  {15f84a1e-6fcb-4543-a19d-2c1bd675de16}, !- Source Object
  11,                                     !- Outlet Port
  {46d1fd2f-e7be-409d-b627-0a818b25a7c9}, !- Target Object
  2;                                      !- Inlet Port

OS:PortList,
  {93d3d98e-a33c-4e3d-b06f-32fceb687aff}, !- Handle
  {15f84a1e-6fcb-4543-a19d-2c1bd675de16}, !- HVAC Component
  {1d890f7c-6370-4ffc-8aa4-541a4032993b}; !- Port 1

OS:PortList,
  {b274b794-83c3-4d3d-a678-c40a69a398f4}, !- Handle
  {15f84a1e-6fcb-4543-a19d-2c1bd675de16}, !- HVAC Component
  {5edbbcb6-5eec-489d-9cac-9a835a3de864}; !- Port 1

OS:PortList,
  {833064b5-ae32-439f-80f1-6b005133d95a}, !- Handle
  {15f84a1e-6fcb-4543-a19d-2c1bd675de16}, !- HVAC Component
  {ce761b7b-fdf0-4ac0-ac8f-20c7b364efa4}; !- Port 1

OS:Sizing:Zone,
  {75e13fdc-72b9-46e8-b7f9-c04f56729cb4}, !- Handle
  {15f84a1e-6fcb-4543-a19d-2c1bd675de16}, !- Zone or ZoneList Name
  SupplyAirTemperature,                   !- Zone Cooling Design Supply Air Temperature Input Method
  12.78,                                  !- Zone Cooling Design Supply Air Temperature {C}
  11.11,                                  !- Zone Cooling Design Supply Air Temperature Difference {deltaC}
  SupplyAirTemperature,                   !- Zone Heating Design Supply Air Temperature Input Method
  40,                                     !- Zone Heating Design Supply Air Temperature {C}
  11.11,                                  !- Zone Heating Design Supply Air Temperature Difference {deltaC}
  0.0085,                                 !- Zone Cooling Design Supply Air Humidity Ratio {kg-H2O/kg-air}
  0.008,                                  !- Zone Heating Design Supply Air Humidity Ratio {kg-H2O/kg-air}
  ,                                       !- Zone Heating Sizing Factor
  ,                                       !- Zone Cooling Sizing Factor
  DesignDay,                              !- Cooling Design Air Flow Method
  ,                                       !- Cooling Design Air Flow Rate {m3/s}
  ,                                       !- Cooling Minimum Air Flow per Zone Floor Area {m3/s-m2}
  ,                                       !- Cooling Minimum Air Flow {m3/s}
  ,                                       !- Cooling Minimum Air Flow Fraction
  DesignDay,                              !- Heating Design Air Flow Method
  ,                                       !- Heating Design Air Flow Rate {m3/s}
  ,                                       !- Heating Maximum Air Flow per Zone Floor Area {m3/s-m2}
  ,                                       !- Heating Maximum Air Flow {m3/s}
  ,                                       !- Heating Maximum Air Flow Fraction
  No,                                     !- Account for Dedicated Outdoor Air System
  NeutralSupplyAir,                       !- Dedicated Outdoor Air System Control Strategy
  autosize,                               !- Dedicated Outdoor Air Low Setpoint Temperature for Design {C}
  autosize;                               !- Dedicated Outdoor Air High Setpoint Temperature for Design {C}

OS:ZoneHVAC:EquipmentList,
  {86c26a6a-33d7-41a4-95c5-8ce3e6c39f35}, !- Handle
  Zone HVAC Equipment List 1,             !- Name
  {15f84a1e-6fcb-4543-a19d-2c1bd675de16}, !- Thermal Zone
  ,                                       !- Load Distribution Scheme
  {c0cf580e-6513-4999-88e0-ca78e53492a0}, !- Zone Equipment 1
  1,                                      !- Zone Equipment Cooling Sequence 1
  1,                                      !- Zone Equipment Heating or No-Load Sequence 1
  ,                                       !- Zone Equipment Sequential Cooling Fraction Schedule Name 1
  ,                                       !- Zone Equipment Sequential Heating Fraction Schedule Name 1
  {738f2eb5-d69a-4d3d-85e3-e5679de3fe86}, !- Zone Equipment 2
  2,                                      !- Zone Equipment Cooling Sequence 2
  2,                                      !- Zone Equipment Heating or No-Load Sequence 2
  ,                                       !- Zone Equipment Sequential Cooling Fraction Schedule Name 2
  ;                                       !- Zone Equipment Sequential Heating Fraction Schedule Name 2

OS:Surface,
  {63cfda9f-808a-4e58-bf56-2f8eaf58e907}, !- Handle
  S1 single_family_living core roof,      !- Name
  RoofCeiling,                            !- Surface Type
  ,                                       !- Construction Name
  {233a06a0-4ea8-4797-a769-769b8eb769d0}, !- Space Name
  Surface,                                !- Outside Boundary Condition
  {5d4e1ad2-9d2a-4a11-9e70-4aa338af5da5}, !- Outside Boundary Condition Object
  NoSun,                                  !- Sun Exposure
  NoWind,                                 !- Wind Exposure
  ,                                       !- View Factor to Ground
  ,                                       !- Number of Vertices
  0, 14.0194308308215, 3.05,              !- X,Y,Z Vertex 1 {m}
  0, 3.04712329107905, 3.05,              !- X,Y,Z Vertex 2 {m}
  6.1, 3.04712329107905, 3.05,            !- X,Y,Z Vertex 3 {m}
  6.1, 0, 3.05,                           !- X,Y,Z Vertex 4 {m}
  15.2393813025477, 0, 3.05,              !- X,Y,Z Vertex 5 {m}
  15.2393813025477, 14.0194308308215, 3.05; !- X,Y,Z Vertex 6 {m}

OS:Surface,
  {af0176e5-72f1-4ace-aa0d-57fa280cba0e}, !- Handle
  S1 single_family_living core floor,     !- Name
  Floor,                                  !- Surface Type
  ,                                       !- Construction Name
  {233a06a0-4ea8-4797-a769-769b8eb769d0}, !- Space Name
  Ground,                                 !- Outside Boundary Condition
  ,                                       !- Outside Boundary Condition Object
  NoSun,                                  !- Sun Exposure
  NoWind,                                 !- Wind Exposure
  ,                                       !- View Factor to Ground
  ,                                       !- Number of Vertices
  0, 3.04712329107905, 0,                 !- X,Y,Z Vertex 1 {m}
  0, 14.0194308308215, 0,                 !- X,Y,Z Vertex 2 {m}
  15.2393813025477, 14.0194308308215, 0,  !- X,Y,Z Vertex 3 {m}
  15.2393813025477, 0, 0,                 !- X,Y,Z Vertex 4 {m}
  6.1, 0, 0,                              !- X,Y,Z Vertex 5 {m}
  6.1, 3.04712329107905, 0;               !- X,Y,Z Vertex 6 {m}

OS:Surface,
  {04d52435-3333-4fb1-b5f2-ae54726cdbc9}, !- Handle
  S1 single_family_living core left_wall, !- Name
  Wall,                                   !- Surface Type
  ,                                       !- Construction Name
  {233a06a0-4ea8-4797-a769-769b8eb769d0}, !- Space Name
  Outdoors,                               !- Outside Boundary Condition
  ,                                       !- Outside Boundary Condition Object
  SunExposed,                             !- Sun Exposure
  WindExposed,                            !- Wind Exposure
  ,                                       !- View Factor to Ground
  ,                                       !- Number of Vertices
  0, 14.0194308308215, 3.05,              !- X,Y,Z Vertex 1 {m}
  0, 14.0194308308215, 0,                 !- X,Y,Z Vertex 2 {m}
  0, 3.04712329107905, 0,                 !- X,Y,Z Vertex 3 {m}
  0, 3.04712329107905, 3.05;              !- X,Y,Z Vertex 4 {m}

OS:SubSurface,
  {f781b012-19b4-4885-9c45-f87770e1c780}, !- Handle
  S1 single_family_living core left_wall win_1, !- Name
  FixedWindow,                            !- Sub Surface Type
  ,                                       !- Construction Name
  {04d52435-3333-4fb1-b5f2-ae54726cdbc9}, !- Surface Name
  ,                                       !- Outside Boundary Condition Object
  ,                                       !- View Factor to Ground
  ,                                       !- Frame and Divider Name
  ,                                       !- Multiplier
  ,                                       !- Number of Vertices
  0, 7.37540987057218, 2.42,              !- X,Y,Z Vertex 1 {m}
  0, 7.37540987057218, 0.9,               !- X,Y,Z Vertex 2 {m}
  0, 4.20499048145713, 0.9,               !- X,Y,Z Vertex 3 {m}
  0, 4.20499048145713, 2.42;              !- X,Y,Z Vertex 4 {m}

OS:SubSurface,
  {f5cc6183-aad0-4533-8381-61ec4d1dbac5}, !- Handle
  S1 single_family_living core left_wall win_2, !- Name
  FixedWindow,                            !- Sub Surface Type
  ,                                       !- Construction Name
  {04d52435-3333-4fb1-b5f2-ae54726cdbc9}, !- Surface Name
  ,                                       !- Outside Boundary Condition Object
  ,                                       !- View Factor to Ground
  ,                                       !- Frame and Divider Name
  ,                                       !- Multiplier
  ,                                       !- Number of Vertices
  0, 12.8615636404434, 2.42,              !- X,Y,Z Vertex 1 {m}
  0, 12.8615636404434, 0.9,               !- X,Y,Z Vertex 2 {m}
  0, 9.69114425132835, 0.9,               !- X,Y,Z Vertex 3 {m}
  0, 9.69114425132835, 2.42;              !- X,Y,Z Vertex 4 {m}

OS:Surface,
  {97b24033-4291-47b4-8edb-ef037e006802}, !- Handle
  S1 single_family_living core front_int_wall, !- Name
  Wall,                                   !- Surface Type
  ,                                       !- Construction Name
  {233a06a0-4ea8-4797-a769-769b8eb769d0}, !- Space Name
  Surface,                                !- Outside Boundary Condition
  {79470467-b919-4124-9da8-2845e36f4571}, !- Outside Boundary Condition Object
  NoSun,                                  !- Sun Exposure
  NoWind,                                 !- Wind Exposure
  ,                                       !- View Factor to Ground
  ,                                       !- Number of Vertices
  0, 3.04712329107905, 3.05,              !- X,Y,Z Vertex 1 {m}
  0, 3.04712329107905, 0,                 !- X,Y,Z Vertex 2 {m}
  6.1, 3.04712329107905, 0,               !- X,Y,Z Vertex 3 {m}
  6.1, 3.04712329107905, 3.05;            !- X,Y,Z Vertex 4 {m}

OS:Surface,
  {077f775d-8ca9-4098-837f-b77375acfff6}, !- Handle
  S1 single_family_living core left_int_wall, !- Name
  Wall,                                   !- Surface Type
  ,                                       !- Construction Name
  {233a06a0-4ea8-4797-a769-769b8eb769d0}, !- Space Name
  Surface,                                !- Outside Boundary Condition
  {58d8ba08-691c-400b-90e5-56279c916f16}, !- Outside Boundary Condition Object
  NoSun,                                  !- Sun Exposure
  NoWind,                                 !- Wind Exposure
  ,                                       !- View Factor to Ground
  ,                                       !- Number of Vertices
  6.1, 3.04712329107905, 3.05,            !- X,Y,Z Vertex 1 {m}
  6.1, 3.04712329107905, 0,               !- X,Y,Z Vertex 2 {m}
  6.1, 0, 0,                              !- X,Y,Z Vertex 3 {m}
  6.1, 0, 3.05;                           !- X,Y,Z Vertex 4 {m}

OS:Surface,
  {883687ee-203b-44f7-ac0e-b91015d8d5b9}, !- Handle
  S1 single_family_living core front_wall, !- Name
  Wall,                                   !- Surface Type
  ,                                       !- Construction Name
  {233a06a0-4ea8-4797-a769-769b8eb769d0}, !- Space Name
  Outdoors,                               !- Outside Boundary Condition
  ,                                       !- Outside Boundary Condition Object
  SunExposed,                             !- Sun Exposure
  WindExposed,                            !- Wind Exposure
  ,                                       !- View Factor to Ground
  ,                                       !- Number of Vertices
  6.1, 0, 3.05,                           !- X,Y,Z Vertex 1 {m}
  6.1, 0, 0,                              !- X,Y,Z Vertex 2 {m}
  15.2393813025477, 0, 0,                 !- X,Y,Z Vertex 3 {m}
  15.2393813025477, 0, 3.05;              !- X,Y,Z Vertex 4 {m}

OS:SubSurface,
  {a429df57-bd85-4535-a1e5-8de19912f03d}, !- Handle
  S1 single_family_living core front_wall win_1, !- Name
  FixedWindow,                            !- Sub Surface Type
  ,                                       !- Construction Name
  {883687ee-203b-44f7-ac0e-b91015d8d5b9}, !- Surface Name
  ,                                       !- Outside Boundary Condition Object
  ,                                       !- View Factor to Ground
  ,                                       !- Frame and Divider Name
  ,                                       !- Multiplier
  ,                                       !- Number of Vertices
  11.6341358887269, 0, 2.42,              !- X,Y,Z Vertex 1 {m}
  11.6341358887269, 0, 0.9,               !- X,Y,Z Vertex 2 {m}
  14.2749360650947, 0, 0.9,               !- X,Y,Z Vertex 3 {m}
  14.2749360650947, 0, 2.42;              !- X,Y,Z Vertex 4 {m}

OS:SubSurface,
  {56463bf0-9759-4cbc-ac85-5c001402820f}, !- Handle
  S1 single_family_living core front_wall win_2, !- Name
  FixedWindow,                            !- Sub Surface Type
  ,                                       !- Construction Name
  {883687ee-203b-44f7-ac0e-b91015d8d5b9}, !- Surface Name
  ,                                       !- Outside Boundary Condition Object
  ,                                       !- View Factor to Ground
  ,                                       !- Frame and Divider Name
  ,                                       !- Multiplier
  ,                                       !- Number of Vertices
  7.06444523745306, 0, 2.42,              !- X,Y,Z Vertex 1 {m}
  7.06444523745306, 0, 0.9,               !- X,Y,Z Vertex 2 {m}
  9.70524541382081, 0, 0.9,               !- X,Y,Z Vertex 3 {m}
  9.70524541382081, 0, 2.42;              !- X,Y,Z Vertex 4 {m}

OS:Surface,
  {6320cfd6-0b07-4daf-afeb-e6822a8b3815}, !- Handle
  S1 single_family_living core right_wall, !- Name
  Wall,                                   !- Surface Type
  ,                                       !- Construction Name
  {233a06a0-4ea8-4797-a769-769b8eb769d0}, !- Space Name
  Outdoors,                               !- Outside Boundary Condition
  ,                                       !- Outside Boundary Condition Object
  SunExposed,                             !- Sun Exposure
  WindExposed,                            !- Wind Exposure
  ,                                       !- View Factor to Ground
  ,                                       !- Number of Vertices
  15.2393813025477, 0, 3.05,              !- X,Y,Z Vertex 1 {m}
  15.2393813025477, 0, 0,                 !- X,Y,Z Vertex 2 {m}
  15.2393813025477, 14.0194308308215, 0,  !- X,Y,Z Vertex 3 {m}
  15.2393813025477, 14.0194308308215, 3.05; !- X,Y,Z Vertex 4 {m}

OS:SubSurface,
  {b00108e6-ab2b-4837-b773-1cab01cc917d}, !- Handle
  S1 single_family_living core right_wall win_1, !- Name
  FixedWindow,                            !- Sub Surface Type
  ,                                       !- Construction Name
  {6320cfd6-0b07-4daf-afeb-e6822a8b3815}, !- Surface Name
  ,                                       !- Outside Boundary Condition Object
  ,                                       !- View Factor to Ground
  ,                                       !- Frame and Divider Name
  ,                                       !- Multiplier
  ,                                       !- Number of Vertices
  15.2393813025477, 10.3325664772423, 2.42, !- X,Y,Z Vertex 1 {m}
  15.2393813025477, 10.3325664772423, 0.9, !- X,Y,Z Vertex 2 {m}
  15.2393813025477, 13.0331515741268, 0.9, !- X,Y,Z Vertex 3 {m}
  15.2393813025477, 13.0331515741268, 2.42; !- X,Y,Z Vertex 4 {m}

OS:SubSurface,
  {1bb4a572-1e3d-4789-b3e3-c283b6f26eb7}, !- Handle
  S1 single_family_living core right_wall win_2, !- Name
  FixedWindow,                            !- Sub Surface Type
  ,                                       !- Construction Name
  {6320cfd6-0b07-4daf-afeb-e6822a8b3815}, !- Surface Name
  ,                                       !- Outside Boundary Condition Object
  ,                                       !- View Factor to Ground
  ,                                       !- Frame and Divider Name
  ,                                       !- Multiplier
  ,                                       !- Number of Vertices
  15.2393813025477, 5.65942286696846, 2.42, !- X,Y,Z Vertex 1 {m}
  15.2393813025477, 5.65942286696846, 0.9, !- X,Y,Z Vertex 2 {m}
  15.2393813025477, 8.36000796385302, 0.9, !- X,Y,Z Vertex 3 {m}
  15.2393813025477, 8.36000796385302, 2.42; !- X,Y,Z Vertex 4 {m}

OS:SubSurface,
  {0f4b645b-d99c-4a9b-a274-f6d543a153c1}, !- Handle
  S1 single_family_living core right_wall win_3, !- Name
  FixedWindow,                            !- Sub Surface Type
  ,                                       !- Construction Name
  {6320cfd6-0b07-4daf-afeb-e6822a8b3815}, !- Surface Name
  ,                                       !- Outside Boundary Condition Object
  ,                                       !- View Factor to Ground
  ,                                       !- Frame and Divider Name
  ,                                       !- Multiplier
  ,                                       !- Number of Vertices
  15.2393813025477, 0.986279256694633, 2.42, !- X,Y,Z Vertex 1 {m}
  15.2393813025477, 0.986279256694633, 0.9, !- X,Y,Z Vertex 2 {m}
  15.2393813025477, 3.68686435357919, 0.9, !- X,Y,Z Vertex 3 {m}
  15.2393813025477, 3.68686435357919, 2.42; !- X,Y,Z Vertex 4 {m}

OS:Surface,
  {786ad95d-3fec-4c0c-9357-bc969cf76abd}, !- Handle
  S1 single_family_living core back_wall, !- Name
  Wall,                                   !- Surface Type
  ,                                       !- Construction Name
  {233a06a0-4ea8-4797-a769-769b8eb769d0}, !- Space Name
  Outdoors,                               !- Outside Boundary Condition
  ,                                       !- Outside Boundary Condition Object
  SunExposed,                             !- Sun Exposure