
OS:Version,
  {dfa0fbe9-9d51-4d39-85a4-d78dcaa27155}, !- Handle
  3.4.0;                                  !- Version Identifier

OS:Facility,
  {4ed8541b-4545-4df9-a786-017a439ed684}; !- Handle

OS:Site,
  {4710d762-1ad2-4802-a7c1-0a52c7749570}, !- Handle
  Buffalo Niagara Intl Ap,                !- Name
  42.93,                                  !- Latitude {deg}
  -78.73,                                 !- Longitude {deg}
  -5,                                     !- Time Zone {hr}
  215,                                    !- Elevation {m}
  City;                                   !- Terrain

OS:SimulationControl,
  {09ae7be9-0af5-4ef5-a8ae-0a38c1882164}, !- Handle
  ,                                       !- Do Zone Sizing Calculation
  ,                                       !- Do System Sizing Calculation
  ,                                       !- Do Plant Sizing Calculation
  No,                                     !- Run Simulation for Sizing Periods
  Yes,                                    !- Run Simulation for Weather File Run Periods
  ,                                       !- Loads Convergence Tolerance Value {W}
  ,                                       !- Temperature Convergence Tolerance Value {deltaC}
  ,                                       !- Solar Distribution
  ,                                       !- Maximum Number of Warmup Days
  ,                                       !- Minimum Number of Warmup Days
  No,                                     !- Do HVAC Sizing Simulation for Sizing Periods
  1;                                      !- Maximum Number of HVAC Sizing Simulation Passes

OS:Sizing:Parameters,
  {74add0b6-035c-4646-8c68-a8fae729eaff}, !- Handle
  1.25,                                   !- Heating Sizing Factor
  1.15;                                   !- Cooling Sizing Factor

OS:Timestep,
  {90482084-df5e-4f93-92e8-398e5494d06b}, !- Handle
  1;                                      !- Number of Timesteps per Hour

OS:ShadowCalculation,
  {9b372740-9ba1-4fe9-a1e2-fda7d37534a2}, !- Handle
  PolygonClipping,                        !- Shading Calculation Method
  ,                                       !- Shading Calculation Update Frequency Method
  20,                                     !- Shading Calculation Update Frequency
  15000,                                  !- Maximum Figures in Shadow Overlap Calculations
  ,                                       !- Polygon Clipping Algorithm
  512,                                    !- Pixel Counting Resolution
  ,                                       !- Sky Diffuse Modeling Algorithm
  No,                                     !- Output External Shading Calculation Results
  No,                                     !- Disable Self-Shading Within Shading Zone Groups
  No;                                     !- Disable Self-Shading From Shading Zone Groups to Other Zones

OS:HeatBalanceAlgorithm,
  {833717bc-bf6c-4726-ac13-79a02625156b}, !- Handle
  ConductionTransferFunction,             !- Algorithm
  200;                                    !- Surface Temperature Upper Limit {C}

OS:RunPeriod,
  {0553e327-0214-48c2-8fff-ab2894fb4bc1}, !- Handle
  Run Period 1,                           !- Name
  1,                                      !- Begin Month
  1,                                      !- Begin Day of Month
  12,                                     !- End Month
  31,                                     !- End Day of Month
  ,                                       !- Use Weather File Holidays and Special Days
  ,                                       !- Use Weather File Daylight Saving Period
  ,                                       !- Apply Weekend Holiday Rule
  ,                                       !- Use Weather File Rain Indicators
  ,                                       !- Use Weather File Snow Indicators
  ;                                       !- Number of Times Runperiod to be Repeated

OS:LifeCycleCost:Parameters,
  {b58cae74-3b8e-4229-9ef7-a99bbe15bd6e}, !- Handle
  ,                                       !- Analysis Type
  ,                                       !- Discounting Convention
  ,                                       !- Inflation Approach
  ,                                       !- Real Discount Rate
  ,                                       !- Nominal Discount Rate
  ,                                       !- Inflation
  ,                                       !- Base Date Month
  ,                                       !- Base Date Year
  ,                                       !- Service Date Month
  ,                                       !- Service Date Year
  ;                                       !- Length of Study Period in Years

OS:YearDescription,
  {289765e5-e260-4814-824d-1353fec19295}, !- Handle
  ,                                       !- Calendar Year
  Sunday,                                 !- Day of Week for Start Day
  ;                                       !- Is Leap Year

OS:Site:WaterMainsTemperature,
  {41f9f69d-4bcc-4cec-b049-3a1dcbba07be}, !- Handle
  Correlation,                            !- Calculation Method
  ,                                       !- Temperature Schedule Name
  8.96666666666667,                       !- Annual Average Outdoor Air Temperature {C}
  26.2;                                   !- Maximum Difference In Monthly Average Outdoor Air Temperatures {deltaC}

OS:SizingPeriod:DesignDay,
  {6b684623-bb80-4ca9-8ecb-32592873ee7e}, !- Handle
  Buffalo Niagara Intl Ap Ann Clg .4% Condns DB=>MWB 1, !- Name
  30.3,                                   !- Maximum Dry-Bulb Temperature {C}
  9.3,                                    !- Daily Dry-Bulb Temperature Range {deltaC}
  98769,                                  !- Barometric Pressure {Pa}
  5.7,                                    !- Wind Speed {m/s}
  240,                                    !- Wind Direction {deg}
  ,                                       !- Sky Clearness
  No,                                     !- Rain Indicator
  No,                                     !- Snow Indicator
  21,                                     !- Day of Month
  7,                                      !- Month
  SummerDesignDay,                        !- Day Type
  No,                                     !- Daylight Saving Time Indicator
  Wetbulb,                                !- Humidity Condition Type
  ,                                       !- Humidity Condition Day Schedule Name
  21.8,                                   !- Wetbulb or DewPoint at Maximum Dry-Bulb {C}
  ,                                       !- Humidity Ratio at Maximum Dry-Bulb {kgWater/kgDryAir}
  ,                                       !- Enthalpy at Maximum Dry-Bulb {J/kg}
  DefaultMultipliers,                     !- Dry-Bulb Temperature Range Modifier Type
  ,                                       !- Dry-Bulb Temperature Range Modifier Day Schedule Name
  ASHRAETau,                              !- Solar Model Indicator
  ,                                       !- Beam Solar Day Schedule Name
  ,                                       !- Diffuse Solar Day Schedule Name
  0.462,                                  !- ASHRAE Clear Sky Optical Depth for Beam Irradiance {dimensionless}
  2.001;                                  !- ASHRAE Clear Sky Optical Depth for Diffuse Irradiance {dimensionless}

OS:SizingPeriod:DesignDay,
  {e966ae67-5fd9-4e83-9b92-ed148dcd059d}, !- Handle
  Buffalo Niagara Intl Ap Ann Clg .4% Condns WB=>MDB 1, !- Name
  27.8,                                   !- Maximum Dry-Bulb Temperature {C}
  9.3,                                    !- Daily Dry-Bulb Temperature Range {deltaC}
  98769,                                  !- Barometric Pressure {Pa}
  5.7,                                    !- Wind Speed {m/s}
  240,                                    !- Wind Direction {deg}
  ,                                       !- Sky Clearness
  No,                                     !- Rain Indicator
  No,                                     !- Snow Indicator
  21,                                     !- Day of Month
  7,                                      !- Month
  SummerDesignDay,                        !- Day Type
  No,                                     !- Daylight Saving Time Indicator
  Wetbulb,                                !- Humidity Condition Type
  ,                                       !- Humidity Condition Day Schedule Name
  23.8,                                   !- Wetbulb or DewPoint at Maximum Dry-Bulb {C}
  ,                                       !- Humidity Ratio at Maximum Dry-Bulb {kgWater/kgDryAir}
  ,                                       !- Enthalpy at Maximum Dry-Bulb {J/kg}
  DefaultMultipliers,                     !- Dry-Bulb Temperature Range Modifier Type
  ,                                       !- Dry-Bulb Temperature Range Modifier Day Schedule Name
  ASHRAETau,                              !- Solar Model Indicator
  ,                                       !- Beam Solar Day Schedule Name
  ,                                       !- Diffuse Solar Day Schedule Name
  0.462,                                  !- ASHRAE Clear Sky Optical Depth for Beam Irradiance {dimensionless}
  2.001;                                  !- ASHRAE Clear Sky Optical Depth for Diffuse Irradiance {dimensionless}

OS:SizingPeriod:DesignDay,
  {25baee55-dd63-49d5-ba7e-b526fa1c9428}, !- Handle
  Buffalo Niagara Intl Ap Ann Htg 99.6% Condns DB 1, !- Name
  -16.3,                                  !- Maximum Dry-Bulb Temperature {C}
  0,                                      !- Daily Dry-Bulb Temperature Range {deltaC}
  98769,                                  !- Barometric Pressure {Pa}
  5.1,                                    !- Wind Speed {m/s}
  270,                                    !- Wind Direction {deg}
  0,                                      !- Sky Clearness
  No,                                     !- Rain Indicator
  No,                                     !- Snow Indicator
  21,                                     !- Day of Month
  1,                                      !- Month
  WinterDesignDay,                        !- Day Type
  No,                                     !- Daylight Saving Time Indicator
  Wetbulb,                                !- Humidity Condition Type
  ,                                       !- Humidity Condition Day Schedule Name
  -16.3,                                  !- Wetbulb or DewPoint at Maximum Dry-Bulb {C}
  ,                                       !- Humidity Ratio at Maximum Dry-Bulb {kgWater/kgDryAir}
  ,                                       !- Enthalpy at Maximum Dry-Bulb {J/kg}
  DefaultMultipliers,                     !- Dry-Bulb Temperature Range Modifier Type
  ,                                       !- Dry-Bulb Temperature Range Modifier Day Schedule Name
  ASHRAEClearSky;                         !- Solar Model Indicator

OS:ClimateZones,
  {28f251bf-9315-4e9b-8f85-f0fe226651fe}, !- Handle
  ASHRAE,                                 !- Climate Zone Institution Name 1
  ANSI/ASHRAE Standard 169,               !- Climate Zone Document Name 1
  2006,                                   !- Climate Zone Document Year 1
  6A,                                     !- Climate Zone Value 1
  CEC,                                    !- Climate Zone Institution Name 2
  California Climate Zone Descriptions,   !- Climate Zone Document Name 2
  1995,                                   !- Climate Zone Document Year 2
  ;                                       !- Climate Zone Value 2

OS:Rendering:Color,
  {633a59c3-2436-4dc3-afd3-451aad864565}, !- Handle
  FullServiceRestaurant Kitchen,          !- Name
  78,                                     !- Rendering Red Value
  222,                                    !- Rendering Green Value
  133;                                    !- Rendering Blue Value

OS:Rendering:Color,
  {33c1d10b-0442-404a-ba66-11d4cf2cf7cf}, !- Handle
  FullServiceRestaurant Dining,           !- Name
  31,                                     !- Rendering Red Value
  169,                                    !- Rendering Green Value
  34;                                     !- Rendering Blue Value

OS:RunPeriodControl:DaylightSavingTime,
  {97b7682e-53d2-4fa0-9f52-91b031b9e09a}, !- Handle
  2nd Sunday in March,                    !- Start Date
  1st Sunday in November;                 !- End Date

OS:People:Definition,
  {215670ea-3d28-4a04-971a-0f4503140ef4}, !- Handle
  FullServiceRestaurant Dining People Definition, !- Name
  People/Area,                            !- Number of People Calculation Method
  ,                                       !- Number of People {people}
  0.753473729169681,                      !- People per Space Floor Area {person/m2}
  ,                                       !- Space Floor Area per Person {m2/person}
  0.3,                                    !- Fraction Radiant
  ,                                       !- Sensible Heat Fraction
  ,                                       !- Carbon Dioxide Generation Rate {m3/s-W}
  Yes,                                    !- Enable ASHRAE 55 Comfort Warnings
  ZoneAveraged,                           !- Mean Radiant Temperature Calculation Type
  Fanger;                                 !- Thermal Comfort Model Type 1

OS:Schedule:Ruleset,
  {bc3fa5cc-9bb2-4a87-9f8d-2ae0ef7dd707}, !- Handle
  Clothing Schedule,                      !- Name
  {445c0c7e-ebe3-4482-a9f4-79c457a7af13}, !- Schedule Type Limits Name
  {be0ee54b-afd3-4326-a071-237ac3a25057}; !- Default Day Schedule Name

OS:Schedule:Day,
  {be0ee54b-afd3-4326-a071-237ac3a25057}, !- Handle
  Clothing Schedule Default Winter Clothes, !- Name
  {445c0c7e-ebe3-4482-a9f4-79c457a7af13}, !- Schedule Type Limits Name
  ,                                       !- Interpolate to Timestep
  24,                                     !- Hour 1
  0,                                      !- Minute 1
  1;                                      !- Value Until Time 1

OS:Schedule:Rule,
  {58727f09-854c-49f5-aecf-d2f1d731670c}, !- Handle
  Schedule Rule 1,                        !- Name
  {bc3fa5cc-9bb2-4a87-9f8d-2ae0ef7dd707}, !- Schedule Ruleset Name
  0,                                      !- Rule Order
  {50a208f0-6fff-424e-9a4b-7dfafd037f4b}, !- Day Schedule Name
  ,                                       !- Apply Sunday
  ,                                       !- Apply Monday
  ,                                       !- Apply Tuesday
  ,                                       !- Apply Wednesday
  ,                                       !- Apply Thursday
  ,                                       !- Apply Friday
  ,                                       !- Apply Saturday
  DateRange,                              !- Date Specification Type
  5,                                      !- Start Month
  1,                                      !- Start Day
  9,                                      !- End Month
  30;                                     !- End Day

OS:Schedule:Day,
  {50a208f0-6fff-424e-9a4b-7dfafd037f4b}, !- Handle
  Clothing Schedule Summer Clothes,       !- Name
  {445c0c7e-ebe3-4482-a9f4-79c457a7af13}, !- Schedule Type Limits Name
  ,                                       !- Interpolate to Timestep
  24,                                     !- Hour 1
  0,                                      !- Minute 1
  0.5;                                    !- Value Until Time 1

OS:ScheduleTypeLimits,
  {445c0c7e-ebe3-4482-a9f4-79c457a7af13}, !- Handle
  ClothingInsulation,                     !- Name
  0,                                      !- Lower Limit Value
  ,                                       !- Upper Limit Value
  Continuous,                             !- Numeric Type
  ClothingInsulation;                     !- Unit Type

OS:Schedule:Ruleset,
  {ffcfd121-31f5-44c9-b968-0805956521b4}, !- Handle
  Air Velocity Schedule,                  !- Name
  {3a073809-a146-4152-9f10-a1b070a45b23}, !- Schedule Type Limits Name
  {0ba669fe-e7d9-4c7b-be1a-2cf4a5cfeea2}; !- Default Day Schedule Name

OS:Schedule:Day,
  {0ba669fe-e7d9-4c7b-be1a-2cf4a5cfeea2}, !- Handle
  Air Velocity Schedule Default,          !- Name
  {3a073809-a146-4152-9f10-a1b070a45b23}, !- Schedule Type Limits Name
  ,                                       !- Interpolate to Timestep
  24,                                     !- Hour 1
  0,                                      !- Minute 1
  0.2;                                    !- Value Until Time 1

OS:ScheduleTypeLimits,
  {3a073809-a146-4152-9f10-a1b070a45b23}, !- Handle
  Velocity,                               !- Name
  0,                                      !- Lower Limit Value
  ,                                       !- Upper Limit Value
  Continuous,                             !- Numeric Type
  Velocity;                               !- Unit Type

OS:Schedule:Ruleset,
  {4031fe4c-736f-46be-92ba-53739fa26040}, !- Handle
  Work Efficiency Schedule,               !- Name
  {4f4a08e9-1eb2-46eb-8b3d-6d1271e2a364}, !- Schedule Type Limits Name
  {8f8a2432-3c2c-46c2-adb8-10ec60724473}; !- Default Day Schedule Name

OS:Schedule:Day,
  {8f8a2432-3c2c-46c2-adb8-10ec60724473}, !- Handle
  Work Efficiency Schedule Default,       !- Name
  {4f4a08e9-1eb2-46eb-8b3d-6d1271e2a364}, !- Schedule Type Limits Name
  ,                                       !- Interpolate to Timestep
  24,                                     !- Hour 1
  0,                                      !- Minute 1
  0;                                      !- Value Until Time 1

OS:ScheduleTypeLimits,
  {4f4a08e9-1eb2-46eb-8b3d-6d1271e2a364}, !- Handle
  Fractional,                             !- Name
  0,                                      !- Lower Limit Value
  1,                                      !- Upper Limit Value
  Continuous;                             !- Numeric Type

OS:Lights:Definition,
  {bb4e4593-3b51-4436-b04e-2b80a68772fe}, !- Handle
  FullServiceRestaurant Dining Lights Definition, !- Name
  Watts/Area,                             !- Design Level Calculation Method
  ,                                       !- Lighting Level {W}
  9.57988027087165,                       !- Watts per Space Floor Area {W/m2}
  ,                                       !- Watts per Person {W/person}
  0.7,                                    !- Fraction Radiant
  0.2,                                    !- Fraction Visible
  0;                                      !- Return Air Fraction

OS:AdditionalProperties,
  {6f851648-1f33-4448-add5-36035fe66d82}, !- Handle
  {bb4e4593-3b51-4436-b04e-2b80a68772fe}, !- Object Name
  lpd_fraction_linear_fluorescent,        !- Feature Name 1
  Double,                                 !- Feature Data Type 1
  1;                                      !- Feature Value 1

OS:ElectricEquipment:Definition,
  {2d77efb0-7b28-4533-9de9-ffd414e6c1b3}, !- Handle
  FullServiceRestaurant Dining Elec Equip Definition, !- Name
  Watts/Area,                             !- Design Level Calculation Method
  ,                                       !- Design Level {W}
  64.927907633593,                        !- Watts per Space Floor Area {W/m2}
  ,                                       !- Watts per Person {W/person}
  0.25,                                   !- Fraction Latent
  0.3,                                    !- Fraction Radiant
  0;                                      !- Fraction Lost

OS:DesignSpecification:OutdoorAir,
  {25fb3eef-e614-4f34-bcb4-6067acfff28f}, !- Handle
  FullServiceRestaurant Dining Ventilation, !- Name
  Sum,                                    !- Outdoor Air Method
  0.003539605824,                         !- Outdoor Air Flow per Person {m3/s-person}
  0.0009144,                              !- Outdoor Air Flow per Floor Area {m3/s-m2}
  ,                                       !- Outdoor Air Flow Rate {m3/s}
  ,                                       !- Outdoor Air Flow Air Changes per Hour {1/hr}
  ;                                       !- Outdoor Air Flow Rate Fraction Schedule Name

OS:DefaultScheduleSet,
  {39cbcf4e-a0dc-419a-9415-2beae3b2f0fc}, !- Handle
  FullServiceRestaurant Dining Schedule Set, !- Name
  ,                                       !- Hours of Operation Schedule Name
  {dae74115-9414-41b2-b941-cf68df7fd050}, !- Number of People Schedule Name
  {0639cbab-8557-4338-99e4-7c9cb26d5dff}, !- People Activity Level Schedule Name
  {b072886e-e653-4b2a-8486-856bd357c78f}, !- Lighting Schedule Name
  {d4a21623-b3cb-4c0d-abbb-900c84ddca5e}, !- Electric Equipment Schedule Name
  ,                                       !- Gas Equipment Schedule Name
  ,                                       !- Hot Water Equipment Schedule Name
  {09675f5d-711f-4336-aaa1-c80b4d0f37ba}, !- Infiltration Schedule Name
  ,                                       !- Steam Equipment Schedule Name
  ;                                       !- Other Equipment Schedule Name

OS:Schedule:Ruleset,
  {dae74115-9414-41b2-b941-cf68df7fd050}, !- Handle
  RestaurantSitDown BLDG_OCC_SCH,         !- Name
  {4f4a08e9-1eb2-46eb-8b3d-6d1271e2a364}, !- Schedule Type Limits Name
  {da101efc-0fe2-4b96-bbbe-088cf47c8289}, !- Default Day Schedule Name
  {20de6dd0-e912-477b-9f51-93426605207a}, !- Summer Design Day Schedule Name
  {f24b6fb2-d6de-41cc-a7fa-7b6c1ad4e148}; !- Winter Design Day Schedule Name

OS:Schedule:Day,
  {da101efc-0fe2-4b96-bbbe-088cf47c8289}, !- Handle
  RestaurantSitDown BLDG_OCC_SCH Default, !- Name
  {4f4a08e9-1eb2-46eb-8b3d-6d1271e2a364}, !- Schedule Type Limits Name
  ,                                       !- Interpolate to Timestep
  1,                                      !- Hour 1
  0,                                      !- Minute 1
  0.05,                                   !- Value Until Time 1
  6,                                      !- Hour 2
  0,                                      !- Minute 2
  0,                                      !- Value Until Time 2
  7,                                      !- Hour 3
  0,                                      !- Minute 3
  0.05,                                   !- Value Until Time 3
  9,                                      !- Hour 4
  0,                                      !- Minute 4
  0.5,                                    !- Value Until Time 4
  11,                                     !- Hour 5
  0,                                      !- Minute 5
  0.2,                                    !- Value Until Time 5
  12,                                     !- Hour 6
  0,                                      !- Minute 6
  0.3,                                    !- Value Until Time 6
  14,                                     !- Hour 7
  0,                                      !- Minute 7
  0.5,                                    !- Value Until Time 7
  15,                                     !- Hour 8
  0,                                      !- Minute 8
  0.3,                                    !- Value Until Time 8
  16,                                     !- Hour 9
  0,                                      !- Minute 9
  0.2,                                    !- Value Until Time 9
  17,                                     !- Hour 10
  0,                                      !- Minute 10
  0.25,                                   !- Value Until Time 10
  18,                                     !- Hour 11
  0,                                      !- Minute 11
  0.35,                                   !- Value Until Time 11
  19,                                     !- Hour 12
  0,                                      !- Minute 12
  0.55,                                   !- Value Until Time 12
  20,                                     !- Hour 13
  0,                                      !- Minute 13
  0.65,                                   !- Value Until Time 13
  21,                                     !- Hour 14
  0,                                      !- Minute 14
  0.7,                                    !- Value Until Time 14
  22,                                     !- Hour 15
  0,                                      !- Minute 15
  0.35,                                   !- Value Until Time 15
  24,                                     !- Hour 16
  0,                                      !- Minute 16
  0.2;                                    !- Value Until Time 16

OS:Schedule:Rule,
  {a703d83a-59d9-464e-a10c-a54381b36fe6}, !- Handle
  Schedule Rule 2,                        !- Name
  {dae74115-9414-41b2-b941-cf68df7fd050}, !- Schedule Ruleset Name
  1,                                      !- Rule Order
  {8b05c61f-1109-4891-add2-b265de9e2baf}, !- Day Schedule Name
  ,                                       !- Apply Sunday
  ,                                       !- Apply Monday
  ,                                       !- Apply Tuesday
  ,                                       !- Apply Wednesday
  ,                                       !- Apply Thursday
  ,                                       !- Apply Friday
  Yes,                                    !- Apply Saturday
  DateRange,                              !- Date Specification Type
  1,                                      !- Start Month
  1,                                      !- Start Day
  12,                                     !- End Month
  31;                                     !- End Day

OS:Schedule:Day,
  {8b05c61f-1109-4891-add2-b265de9e2baf}, !- Handle
  RestaurantSitDown BLDG_OCC_SCH Sat Day, !- Name
  {4f4a08e9-1eb2-46eb-8b3d-6d1271e2a364}, !- Schedule Type Limits Name
  ,                                       !- Interpolate to Timestep
  1,                                      !- Hour 1
  0,                                      !- Minute 1
  0.05,                                   !- Value Until Time 1
  6,                                      !- Hour 2
  0,                                      !- Minute 2
  0,                                      !- Value Until Time 2
  7,                                      !- Hour 3
  0,                                      !- Minute 3
  0.05,                                   !- Value Until Time 3
  9,                                      !- Hour 4
  0,                                      !- Minute 4
  0.5,                                    !- Value Until Time 4
  10,                                     !- Hour 5
  0,                                      !- Minute 5
  0.4,                                    !- Value Until Time 5
  11,                                     !- Hour 6
  0,                                      !- Minute 6
  0.2,                                    !- Value Until Time 6
  12,                                     !- Hour 7
  0,                                      !- Minute 7
  0.45,                                   !- Value Until Time 7
  14,                                     !- Hour 8
  0,                                      !- Minute 8
  0.5,                                    !- Value Until Time 8
  15,                                     !- Hour 9
  0,                                      !- Minute 9
  0.35,                                   !- Value Until Time 9
  18,                                     !- Hour 10
  0,                                      !- Minute 10
  0.3,                                    !- Value Until Time 10
  19,                                     !- Hour 11
  0,                                      !- Minute 11
  0.7,                                    !- Value Until Time 11
  20,                                     !- Hour 12
  0,                                      !- Minute 12
  0.9,                                    !- Value Until Time 12
  21,                                     !- Hour 13
  0,                                      !- Minute 13
  0.7,                                    !- Value Until Time 13
  22,                                     !- Hour 14
  0,                                      !- Minute 14
  0.65,                                   !- Value Until Time 14
  23,                                     !- Hour 15
  0,                                      !- Minute 15
  0.55,                                   !- Value Until Time 15
  24,                                     !- Hour 16
  0,                                      !- Minute 16
  0.35;                                   !- Value Until Time 16

OS:Schedule:Day,
  {20de6dd0-e912-477b-9f51-93426605207a}, !- Handle
  RestaurantSitDown BLDG_OCC_SCH Summer Design Day, !- Name
  {4f4a08e9-1eb2-46eb-8b3d-6d1271e2a364}, !- Schedule Type Limits Name
  ,                                       !- Interpolate to Timestep
  24,                                     !- Hour 1
  0,                                      !- Minute 1
  1;                                      !- Value Until Time 1

OS:Schedule:Rule,
  {427ec1c1-ba3d-469c-a81d-8c967240c947}, !- Handle
  Schedule Rule 3,                        !- Name
  {dae74115-9414-41b2-b941-cf68df7fd050}, !- Schedule Ruleset Name
  0,                                      !- Rule Order
  {d49b88d4-e3cf-48a5-800a-666ed883fd36}, !- Day Schedule Name
  ,                                       !- Apply Sunday
  Yes,                                    !- Apply Monday
  Yes,                                    !- Apply Tuesday
  Yes,                                    !- Apply Wednesday
  Yes,                                    !- Apply Thursday
  Yes,                                    !- Apply Friday
  ,                                       !- Apply Saturday
  DateRange,                              !- Date Specification Type
  1,                                      !- Start Month
  1,                                      !- Start Day
  12,                                     !- End Month
  31;                                     !- End Day

OS:Schedule:Day,
  {d49b88d4-e3cf-48a5-800a-666ed883fd36}, !- Handle