
OS:Version,
  {710267aa-03b7-4f18-b675-4210bf362bb2}, !- Handle
  3.7.0;                                  !- Version Identifier

OS:Schedule:Ruleset,
  {5e51be1d-47a4-45a6-831f-69e2b394fc9c}, !- Handle
  EV Charging Power Draw,                 !- Name
  {f4a971c0-7bb6-4f09-b54b-593ad91e646f}, !- Schedule Type Limits Name
  {6bcacd24-481f-4f28-9dba-45fc1174e22a}; !- Default Day Schedule Name

OS:Schedule:Day,
  {6bcacd24-481f-4f28-9dba-45fc1174e22a}, !- Handle
  EV Charging Default,                    !- Name
  {f4a971c0-7bb6-4f09-b54b-593ad91e646f}, !- Schedule Type Limits Name
  ,                                       !- Interpolate to Timestep
  8,                                      !- Hour 1
  8,                                      !- Minute 1
  0,                                      !- Value Until Time 1
  8,                                      !- Hour 2
  19,                                     !- Minute 2
  0.333333333333333,                      !- Value Until Time 2
  8,                                      !- Hour 3
  20,                                     !- Minute 3
  0.666666666666667,                      !- Value Until Time 3
  14,                                     !- Hour 4
  34,                                     !- Minute 4
  1,                                      !- Value Until Time 4
  14,                                     !- Hour 5
  39,                                     !- Minute 5
  0.666666666666667,                      !- Value Until Time 5
  16,                                     !- Hour 6
  21,                                     !- Minute 6
  0.333333333333333,                      !- Value Until Time 6
  24,                                     !- Hour 7
  0,                                      !- Minute 7
  -1.2335811384724e-16;                   !- Value Until Time 7

OS:Schedule:Rule,
  {f33ae947-b72d-4290-aaef-fe86f9501ffc}, !- Handle
  EV Charging Power Saturday,             !- Name
  {5e51be1d-47a4-45a6-831f-69e2b394fc9c}, !- Schedule Ruleset Name
  1,                                      !- Rule Order
  {8ec2458e-65f1-4aeb-990f-bedc9b3fadfa}, !- Day Schedule Name
  ,                                       !- Apply Sunday
  ,                                       !- Apply Monday
  ,                                       !- Apply Tuesday
  ,                                       !- Apply Wednesday
  ,                                       !- Apply Thursday
  ,                                       !- Apply Friday
  Yes;                                    !- Apply Saturday

OS:Schedule:Day,
  {8ec2458e-65f1-4aeb-990f-bedc9b3fadfa}, !- Handle
  EV Charging Default 1,                  !- Name
  {f4a971c0-7bb6-4f09-b54b-593ad91e646f}, !- Schedule Type Limits Name
  ,                                       !- Interpolate to Timestep
  8,                                      !- Hour 1
  8,                                      !- Minute 1
  0,                                      !- Value Until Time 1
  8,                                      !- Hour 2
  19,                                     !- Minute 2
  0.333333333333333,                      !- Value Until Time 2
  8,                                      !- Hour 3
  20,                                     !- Minute 3
  0.666666666666667,                      !- Value Until Time 3
  14,                                     !- Hour 4
  34,                                     !- Minute 4
  1,                                      !- Value Until Time 4
  14,                                     !- Hour 5
  39,                                     !- Minute 5
  0.666666666666667,                      !- Value Until Time 5
  16,                                     !- Hour 6
  21,                                     !- Minute 6
  0.333333333333333,                      !- Value Until Time 6
  24,                                     !- Hour 7
  0,                                      !- Minute 7
  -1.2335811384724e-16;                   !- Value Until Time 7

OS:Schedule:Rule,
  {a4dc317b-a25b-488b-8b39-3a45a92069f4}, !- Handle
  EV Charging Power Sunday,               !- Name
  {5e51be1d-47a4-45a6-831f-69e2b394fc9c}, !- Schedule Ruleset Name
  0,                                      !- Rule Order
  {41604025-03c3-4af2-8370-f6ac84c8e3b7}, !- Day Schedule Name
  Yes;                                    !- Apply Sunday

OS:Schedule:Day,
  {41604025-03c3-4af2-8370-f6ac84c8e3b7}, !- Handle
  EV Charging Default 2,                  !- Name
  {f4a971c0-7bb6-4f09-b54b-593ad91e646f}, !- Schedule Type Limits Name
  ,                                       !- Interpolate to Timestep
  8,                                      !- Hour 1
  8,                                      !- Minute 1
  0,                                      !- Value Until Time 1
  8,                                      !- Hour 2
  19,                                     !- Minute 2
  0.333333333333333,                      !- Value Until Time 2
  8,                                      !- Hour 3
  20,                                     !- Minute 3
  0.666666666666667,                      !- Value Until Time 3
  14,                                     !- Hour 4
  34,                                     !- Minute 4
  1,                                      !- Value Until Time 4
  14,                                     !- Hour 5
  39,                                     !- Minute 5
  0.666666666666667,                      !- Value Until Time 5
  16,                                     !- Hour 6
  21,                                     !- Minute 6
  0.333333333333333,                      !- Value Until Time 6
  24,                                     !- Hour 7
  0,                                      !- Minute 7
  -1.2335811384724e-16;                   !- Value Until Time 7

OS:Exterior:FuelEquipment:Definition,
  {1c7425ee-61c5-4424-a7a2-680290c07aab}, !- Handle
  28799.999999999996 w EV Charging Definition, !- Name
  28800;                                  !- Design Level {W}

OS:Exterior:FuelEquipment,
  {31a42d85-55dc-43ec-b0a8-beace3568b41}, !- Handle
  28799.999999999996 w EV Charger,        !- Name
  {1c7425ee-61c5-4424-a7a2-680290c07aab}, !- Exterior Fuel Equipment Definition Name
  {5e51be1d-47a4-45a6-831f-69e2b394fc9c}, !- Schedule Name
  Electricity,                            !- Fuel Use Type
  ,                                       !- Multiplier
  Electric Vehicles;                      !- End-Use Subcategory

OS:ScheduleTypeLimits,
  {f4a971c0-7bb6-4f09-b54b-593ad91e646f}, !- Handle
  Fractional,                             !- Name
  0,                                      !- Lower Limit Value
  1,                                      !- Upper Limit Value
  Continuous;                             !- Numeric Type

